LTspice 24.0.9 for Windows
Circuit: * C:\Users\linca\Desktop\SUPER Lab\IMSSDC2024\SPICE\phi_2\Draft1.asc
Start Time: Fri Sep 13 09:56:36 2024
solver = Normal
Maximum thread count: 16
tnom = 27
temp = 27
method = modified trap
Per .tran options, skipping operating point for transient analysis.
Total elapsed time: 3.445 seconds.

