LTspice 24.0.9 for Windows
Circuit: * C:\Users\linca\Desktop\SUPER Lab\IMSSDC2024\SPICE\phi_2\phi_2_50MHz_EPC8010.asc
Start Time: Mon May  6 12:46:15 2024
solver = Normal
Maximum thread count: 16
tnom = 27
temp = 27
method = modified trap
WARNING: Node ZOUT is floating.

WARNING: Less than two connections to node n001.  This node is used by l8.
Direct Newton iteration for .op point succeeded.

pin: AVG(i(l1)*v(12v))=12.0495 FROM 0 TO 8e-08
pout: AVG(i(rl)*v(out))=10.7372 FROM 0 TO 8e-08
pg: AVG(-v(g1)*i(v1))=0.0150233 FROM 0 TO 8e-08
efficiency: pout/(pin+pg)=0.889977

Total elapsed time: 0.982 seconds.

