LTspice 24.0.9 for Windows
Circuit: * C:\Users\linca\Desktop\SUPER Lab\IMSSDC2024\SPICE\phi_2\phi_2_50MHz_EPC2214.asc
Start Time: Wed Apr 10 10:22:36 2024
solver = Normal
Maximum thread count: 16
tnom = 27
temp = 27
method = modified trap
WARNING: Less than two connections to node n002.  This node is used by r1.
WARNING: Less than two connections to node tc.  This node is used by r2.
Direct Newton iteration for .op point succeeded.

pin: AVG(i(l1)*v(12v))=12.3898 FROM 0 TO 8e-08
pout: AVG(i(rl)*v(out))=10.7353 FROM 0 TO 8e-08
pg: AVG(-v(g1)*i(v1))=0.209867 FROM 0 TO 8e-08
efficiency: pout/(pin+pg)=0.852025

Total elapsed time: 0.969 seconds.

