LTspice 24.0.9 for Windows
Circuit: * C:\Users\linca\Desktop\SUPER Lab\IMSSDC2024\SPICE\phi_2\phi_2_50MHz_EPC8010.asc
Start Time: Thu Sep  5 14:25:47 2024
solver = Normal
Maximum thread count: 16
tnom = 27
temp = 27
method = modified trap
WARNING: Node ZOUT is floating.
WARNING: Node NC_01 is floating.

WARNING: Less than two connections to node n001.  This node is used by l8.
WARNING: Less than two connections to node nc_01.  This node is used by i4.
Direct Newton iteration for .op point succeeded.

pin: AVG(i(l1)*v(12v))=11.6009 FROM 0 TO 8e-08
pout: AVG(i(rl)*v(out))=10.3621 FROM 0 TO 8e-08
pg: AVG(-v(g1)*i(v1))=0.0136275 FROM 0 TO 8e-08
efficiency: pout/(pin+pg)=0.892171

Total elapsed time: 4.317 seconds.

