LTspice 24.0.9 for Windows
Circuit: * C:\Users\linca\Desktop\SUPER Lab\IMSSDC2024\SPICE\phi_2\phi_2_50MHz_EPC2214.asc
Start Time: Wed May  1 12:35:03 2024
solver = Normal
Maximum thread count: 16
tnom = 27
temp = 27
method = modified trap
WARNING: Node ZOUT is floating.

WARNING: Less than two connections to node n001.  This node is used by l8.
Direct Newton iteration for .op point succeeded.

pin: AVG(i(l1)*v(12v))=12.7218 FROM 0 TO 8e-08
pout: AVG(i(rl)*v(out))=11.1217 FROM 0 TO 8e-08
pg: AVG(-v(g1)*i(v1))=0.298229 FROM 0 TO 8e-08
efficiency: pout/(pin+pg)=0.854198

Total elapsed time: 1.045 seconds.

