Circuit: * C:\Users\linca\Desktop\SuPEr Lab\IMSSDC2024\SPICE\phi_2\phi_2_50MHz_GS61004B.asc

WARNING: Node N001 is floating.

WARNING: Less than two connections to node N001.  This node is used by I1.
Direct Newton iteration for .op point succeeded.

pin: AVG(i(l1)*v(12v))=11.857 FROM 0 TO 8e-008
pout: AVG(i(rl)*v(out))=10.6196 FROM 0 TO 8e-008
pg: AVG(-v(g1)*i(v1))=0.841258 FROM 0 TO 8e-008
efficiency: pout/(pin+pg)=0.836303


Date: Wed Mar 06 17:15:06 2024
Total elapsed time: 10.709 seconds.

tnom = 27
temp = 27
method = modified trap
totiter = 1095566
traniter = 1095562
tranpoints = 503297
accept = 354396
rejected = 148901
matrix size = 38
fillins = 26
solver = Normal
Matrix Compiler1: 3.19 KB object code size  0.6/0.4/[0.2]
Matrix Compiler2: 3.21 KB object code size  0.2/0.4/[0.2]

