Circuit: * C:\Users\linca\Desktop\SuPEr Lab\IMSSDC2024\SPICE\phi_2\phi_2_50MHz_EPC2070.asc

WARNING: Less than two connections to node N002.  This node is used by R1.
WARNING: Less than two connections to node TC.  This node is used by R2.
Direct Newton iteration for .op point succeeded.

pin: AVG(i(l1)*v(12v))=13.916 FROM 0 TO 8e-008
pout: AVG(i(rl)*v(out))=12.3858 FROM 0 TO 8e-008
pg: AVG(-v(g1)*i(v1))=0.327379 FROM 0 TO 8e-008
efficiency: pout/(pin+pg)=0.869587


Date: Fri Feb 23 14:39:36 2024
Total elapsed time: 2.543 seconds.

tnom = 27
temp = 27
method = modified trap
totiter = 392536
traniter = 392532
tranpoints = 111125
accept = 83925
rejected = 27200
matrix size = 19
fillins = 0
solver = Normal
Matrix Compiler1: 732 bytes object code size  0.3/0.2/[0.1]
Matrix Compiler2: 1.23 KB object code size  0.2/0.3/[0.2]

