Circuit: * C:\Users\linca\Desktop\SuPEr Lab\IMSSDC2024\SPICE\phi_2\phi_2_50MHz_EPCothers.asc

WARNING: Less than two connections to node N002.  This node is used by R1.
WARNING: Less than two connections to node TC.  This node is used by R2.
Direct Newton iteration for .op point succeeded.

pin: AVG(i(l1)*v(12v))=12.2906 FROM 0 TO 8e-008
pout: AVG(i(rl)*v(out))=10.9533 FROM 0 TO 8e-008
pg: AVG(-v(g1)*i(v1))=0.245447 FROM 0 TO 8e-008
efficiency: pout/(pin+pg)=0.873745


Date: Mon Mar 04 14:23:04 2024
Total elapsed time: 2.265 seconds.

tnom = 27
temp = 27
method = modified trap
totiter = 364668
traniter = 364664
tranpoints = 92606
accept = 71241
rejected = 21365
matrix size = 19
fillins = 0
solver = Normal
Matrix Compiler1: 732 bytes object code size  0.2/0.1/[0.1]
Matrix Compiler2: off  [0.1]/0.2/0.1

