Circuit: * C:\Users\linca\Desktop\SuPEr Lab\IMSSDC2024\SPICE\phi_2\phi_2_50MHz_EPC2070.asc

WARNING: Less than two connections to node N002.  This node is used by R1.
WARNING: Less than two connections to node TC.  This node is used by R2.
Direct Newton iteration for .op point succeeded.

pin: AVG(i(l1)*v(12v))=13.6848 FROM 0 TO 8e-008
pout: AVG(i(rl)*v(out))=12.0224 FROM 0 TO 8e-008
pg: AVG(-v(g1)*i(v1))=0.331328 FROM 0 TO 8e-008
efficiency: pout/(pin+pg)=0.857754


Date: Mon Mar 04 12:31:43 2024
Total elapsed time: 2.179 seconds.

tnom = 27
temp = 27
method = modified trap
totiter = 357587
traniter = 357583
tranpoints = 101951
accept = 78448
rejected = 23503
matrix size = 19
fillins = 0
solver = Normal
Matrix Compiler1: 732 bytes object code size  0.2/0.1/[0.1]
Matrix Compiler2: 1.23 KB object code size  0.1/0.2/[0.1]

