Circuit: * C:\Users\linca\Desktop\SuPEr Lab\IMSSDC2024\SPICE\gatedriver\gatedriver.asc

WARNING: Less than two connections to node NC_01.  This node is used by R6.
Direct Newton iteration for .op point succeeded.

Date: Wed Feb 21 10:41:46 2024
Total elapsed time: 4.371 seconds.

tnom = 27
temp = 27
method = modified trap
totiter = 122944
traniter = 122940
tranpoints = 31752
accept = 26149
rejected = 5603
matrix size = 82
fillins = 9
solver = Normal
Thread vector: 56.8/29.2[2] 7.2/4.4[2] 4.1/3.1[2] 0.3/1.2[1]  2592/500
Matrix Compiler1: 3.83 KB object code size  0.8/0.5/[0.3]
Matrix Compiler2: 5.49 KB object code size  0.4/0.8/[0.3]

