Circuit: * C:\Users\linca\Desktop\SuPEr Lab\IMSSDC2024\SPICE\gatedriver\gatedriver.asc

WARNING: Node N004 is floating.

WARNING: Less than two connections to node N004.  This node is used by R2.
WARNING: Less than two connections to node 8004_G.  This node is used by R1.
WARNING: Less than two connections to node NC_01.  This node is used by R6.
Direct Newton iteration for .op point succeeded.

Date: Fri Feb 16 14:45:57 2024
Total elapsed time: 4.977 seconds.

tnom = 27
temp = 27
method = modified trap
totiter = 130028
traniter = 130024
tranpoints = 34532
accept = 28388
rejected = 6144
matrix size = 83
fillins = 7
solver = Normal
Thread vector: 46.5/24.3[2] 7.1/4.0[2] 3.9/2.9[2] 0.2/1.2[1]  2592/500
Matrix Compiler1: 3.78 KB object code size  0.8/0.5/[0.2]
Matrix Compiler2: 5.49 KB object code size  0.4/0.7/[0.2]

